Circuit: * U:\LTspiceXVII\Draft3.asc

Direct Newton iteration for .op point succeeded.

Date: Tue Feb 09 10:06:26 2021
Total elapsed time: 0.170 seconds.

tnom = 27
temp = 27
method = trap
totiter = 22
traniter = 0
tranpoints = 0
accept = 0
rejected = 0
matrix size = 11
fillins = 5
solver = Normal
Matrix Compiler1:      32 opcodes
Matrix Compiler2: 965 bytes object code size
