Circuit: * U:\LTspiceXVII\Draft4.asc

Direct Newton iteration for .op point succeeded.

Date: Tue Feb 09 11:44:08 2021
Total elapsed time: 0.159 seconds.

tnom = 27
temp = 27
method = modified trap
totiter = 8354
traniter = 8332
tranpoints = 4167
accept = 2691
rejected = 1476
matrix size = 16
fillins = 5
solver = Normal
Matrix Compiler1: 728 bytes object code size  0.2/0.1/[0.1]
Matrix Compiler2: 1.29 KB object code size  0.1/0.2/[0.1]

